ELEMENTS
O N H
END

SPECIES
O2     N2    H2O
END

TRANS ALL
O2                 1   107.400     3.458     0.000     1.600     3.800          
N2                 1    97.530     3.621     0.000     1.760     4.000          
END

REACTIONS
END
